<?xml version="1.0" encoding="UTF-8"?>

<!-- generated on Fri Sep 27 06:39:02 2019 by Eclipse SUMO netgenerate Version 1.2.0
<configuration xmlns:xsi="http://www.w3.org/2001/XMLSchema-instance" xsi:noNamespaceSchemaLocation="http://sumo.dlr.de/xsd/netgenerateConfiguration.xsd">

    <grid_network>
        <grid value="true"/>
        <grid.number value="3"/>
        <grid.length value="200"/>
    </grid_network>

    <output>
        <output-file value="grid3x3.net.xml"/>
    </output>

    <processing>
        <lefthand value="true"/>
    </processing>

    <building_defaults>
        <default.lanenumber value="1"/>
        <default.junctions.keep-clear value="false"/>
    </building_defaults>

</configuration>
-->

<net version="1.1" junctionCornerDetail="5" lefthand="true" limitTurnSpeed="5.50" xmlns:xsi="http://www.w3.org/2001/XMLSchema-instance" xsi:noNamespaceSchemaLocation="http://sumo.dlr.de/xsd/net_file.xsd">

    <location netOffset="0.00,-0.00" convBoundary="0.00,-0.00,400.00,400.00" origBoundary="0.00,0.00,400.00,400.00" projParameter="!"/>

    <edge id=":A0_0" function="internal">
        <lane id=":A0_0_0" index="0" speed="6.08" length="7.74" shape="3.20,-1.60 1.10,-1.30 -0.40,-0.40 -1.30,1.10 -1.60,3.20"/>
    </edge>
    <edge id=":A0_1" function="internal">
        <lane id=":A0_1_0" index="0" speed="3.90" length="2.58" shape="1.60,3.20 1.70,2.50 2.00,2.00 2.50,1.70 3.20,1.60"/>
    </edge>
    <edge id=":A1_0" function="internal">
        <lane id=":A1_0_0" index="0" speed="13.89" length="14.40" shape="-1.60,192.80 -1.60,207.20"/>
    </edge>
    <edge id=":A1_1" function="internal">
        <lane id=":A1_1_0" index="0" speed="8.00" length="5.93" shape="-1.60,192.80 -1.05,196.65 -0.00,198.40"/>
    </edge>
    <edge id=":A1_2" function="internal">
        <lane id=":A1_2_0" index="0" speed="3.65" length="2.34" shape="-1.60,192.80 -0.80,194.00 0.00,194.40"/>
    </edge>
    <edge id=":A1_9" function="internal">
        <lane id=":A1_9_0" index="0" speed="8.00" length="8.26" shape="-0.00,198.40 0.60,199.40 3.35,201.05 7.20,201.60"/>
    </edge>
    <edge id=":A1_10" function="internal">
        <lane id=":A1_10_0" index="0" speed="3.65" length="2.34" shape="0.00,194.40 0.80,194.00 1.60,192.80"/>
    </edge>
    <edge id=":A1_3" function="internal">
        <lane id=":A1_3_0" index="0" speed="6.51" length="9.03" shape="7.20,198.40 4.75,198.05 3.00,197.00 1.95,195.25 1.60,192.80"/>
    </edge>
    <edge id=":A1_4" function="internal">
        <lane id=":A1_4_0" index="0" speed="8.00" length="14.19" shape="7.20,198.40 3.35,198.95 0.60,200.60 -1.05,203.35 -1.60,207.20"/>
    </edge>
    <edge id=":A1_5" function="internal">
        <lane id=":A1_5_0" index="0" speed="3.65" length="4.67" shape="7.20,198.40 6.00,199.20 5.60,200.00 6.00,200.80 7.20,201.60"/>
    </edge>
    <edge id=":A1_6" function="internal">
        <lane id=":A1_6_0" index="0" speed="6.51" length="9.03" shape="1.60,207.20 1.95,204.75 3.00,203.00 4.75,201.95 7.20,201.60"/>
    </edge>
    <edge id=":A1_7" function="internal">
        <lane id=":A1_7_0" index="0" speed="13.89" length="14.40" shape="1.60,207.20 1.60,192.80"/>
    </edge>
    <edge id=":A1_8" function="internal">
        <lane id=":A1_8_0" index="0" speed="3.65" length="2.34" shape="1.60,207.20 0.80,206.00 0.00,205.60"/>
    </edge>
    <edge id=":A1_11" function="internal">
        <lane id=":A1_11_0" index="0" speed="3.65" length="2.34" shape="0.00,205.60 -0.80,206.00 -1.60,207.20"/>
    </edge>
    <edge id=":A2_0" function="internal">
        <lane id=":A2_0_0" index="0" speed="6.08" length="7.74" shape="-1.60,396.80 -1.30,398.90 -0.40,400.40 1.10,401.30 3.20,401.60"/>
    </edge>
    <edge id=":A2_1" function="internal">
        <lane id=":A2_1_0" index="0" speed="3.90" length="2.58" shape="3.20,398.40 2.50,398.30 2.00,398.00 1.70,397.50 1.60,396.80"/>
    </edge>
    <edge id=":B0_0" function="internal">
        <lane id=":B0_0_0" index="0" speed="13.89" length="14.40" shape="207.20,-1.60 192.80,-1.60"/>
    </edge>
    <edge id=":B0_1" function="internal">
        <lane id=":B0_1_0" index="0" speed="8.00" length="5.93" shape="207.20,-1.60 203.35,-1.05 201.60,-0.00"/>
    </edge>
    <edge id=":B0_2" function="internal">
        <lane id=":B0_2_0" index="0" speed="3.65" length="2.34" shape="207.20,-1.60 206.00,-0.80 205.60,-0.00"/>
    </edge>
    <edge id=":B0_9" function="internal">
        <lane id=":B0_9_0" index="0" speed="8.00" length="8.26" shape="201.60,-0.00 200.60,0.60 198.95,3.35 198.40,7.20"/>
    </edge>
    <edge id=":B0_10" function="internal">
        <lane id=":B0_10_0" index="0" speed="3.65" length="2.34" shape="205.60,-0.00 206.00,0.80 207.20,1.60"/>
    </edge>
    <edge id=":B0_3" function="internal">
        <lane id=":B0_3_0" index="0" speed="6.51" length="9.03" shape="201.60,7.20 201.95,4.75 203.00,3.00 204.75,1.95 207.20,1.60"/>
    </edge>
    <edge id=":B0_4" function="internal">
        <lane id=":B0_4_0" index="0" speed="8.00" length="14.19" shape="201.60,7.20 201.05,3.35 199.40,0.60 196.65,-1.05 192.80,-1.60"/>
    </edge>
    <edge id=":B0_5" function="internal">
        <lane id=":B0_5_0" index="0" speed="3.65" length="4.67" shape="201.60,7.20 200.80,6.00 200.00,5.60 199.20,6.00 198.40,7.20"/>
    </edge>
    <edge id=":B0_6" function="internal">
        <lane id=":B0_6_0" index="0" speed="6.51" length="9.03" shape="192.80,1.60 195.25,1.95 197.00,3.00 198.05,4.75 198.40,7.20"/>
    </edge>
    <edge id=":B0_7" function="internal">
        <lane id=":B0_7_0" index="0" speed="13.89" length="14.40" shape="192.80,1.60 207.20,1.60"/>
    </edge>
    <edge id=":B0_8" function="internal">
        <lane id=":B0_8_0" index="0" speed="3.65" length="2.34" shape="192.80,1.60 194.00,0.80 194.40,-0.00"/>
    </edge>
    <edge id=":B0_11" function="internal">
        <lane id=":B0_11_0" index="0" speed="3.65" length="2.34" shape="194.40,-0.00 194.00,-0.80 192.80,-1.60"/>
    </edge>
    <edge id=":B1_0" function="internal">
        <lane id=":B1_0_0" index="0" speed="6.51" length="9.03" shape="198.40,192.80 198.05,195.25 197.00,197.00 195.25,198.05 192.80,198.40"/>
    </edge>
    <edge id=":B1_1" function="internal">
        <lane id=":B1_1_0" index="0" speed="13.89" length="14.40" shape="198.40,192.80 198.40,207.20"/>
    </edge>
    <edge id=":B1_2" function="internal">
        <lane id=":B1_2_0" index="0" speed="8.00" length="5.93" shape="198.40,192.80 198.95,196.65 200.00,198.40"/>
    </edge>
    <edge id=":B1_3" function="internal">
        <lane id=":B1_3_0" index="0" speed="3.65" length="2.34" shape="198.40,192.80 199.20,194.00 200.00,194.40"/>
    </edge>
    <edge id=":B1_16" function="internal">
        <lane id=":B1_16_0" index="0" speed="8.00" length="8.26" shape="200.00,198.40 200.60,199.40 203.35,201.05 207.20,201.60"/>
    </edge>
    <edge id=":B1_17" function="internal">
        <lane id=":B1_17_0" index="0" speed="3.65" length="2.34" shape="200.00,194.40 200.80,194.00 201.60,192.80"/>
    </edge>
    <edge id=":B1_4" function="internal">
        <lane id=":B1_4_0" index="0" speed="6.51" length="9.03" shape="207.20,198.40 204.75,198.05 203.00,197.00 201.95,195.25 201.60,192.80"/>
    </edge>
    <edge id=":B1_5" function="internal">
        <lane id=":B1_5_0" index="0" speed="13.89" length="14.40" shape="207.20,198.40 192.80,198.40"/>
    </edge>
    <edge id=":B1_6" function="internal">
        <lane id=":B1_6_0" index="0" speed="8.00" length="14.19" shape="207.20,198.40 203.35,198.95 200.60,200.60 198.95,203.35 198.40,207.20"/>
    </edge>
    <edge id=":B1_7" function="internal">
        <lane id=":B1_7_0" index="0" speed="3.65" length="4.67" shape="207.20,198.40 206.00,199.20 205.60,200.00 206.00,200.80 207.20,201.60"/>
    </edge>
    <edge id=":B1_8" function="internal">
        <lane id=":B1_8_0" index="0" speed="6.51" length="9.03" shape="201.60,207.20 201.95,204.75 203.00,203.00 204.75,201.95 207.20,201.60"/>
    </edge>
    <edge id=":B1_9" function="internal">
        <lane id=":B1_9_0" index="0" speed="13.89" length="14.40" shape="201.60,207.20 201.60,192.80"/>
    </edge>
    <edge id=":B1_10" function="internal">
        <lane id=":B1_10_0" index="0" speed="8.00" length="5.93" shape="201.60,207.20 201.05,203.35 200.00,201.60"/>
    </edge>
    <edge id=":B1_11" function="internal">
        <lane id=":B1_11_0" index="0" speed="3.65" length="2.34" shape="201.60,207.20 200.80,206.00 200.00,205.60"/>
    </edge>
    <edge id=":B1_18" function="internal">
        <lane id=":B1_18_0" index="0" speed="8.00" length="8.26" shape="200.00,201.60 199.40,200.60 196.65,198.95 192.80,198.40"/>
    </edge>
    <edge id=":B1_19" function="internal">
        <lane id=":B1_19_0" index="0" speed="3.65" length="2.34" shape="200.00,205.60 199.20,206.00 198.40,207.20"/>
    </edge>
    <edge id=":B1_12" function="internal">
        <lane id=":B1_12_0" index="0" speed="6.51" length="9.03" shape="192.80,201.60 195.25,201.95 197.00,203.00 198.05,204.75 198.40,207.20"/>
    </edge>
    <edge id=":B1_13" function="internal">
        <lane id=":B1_13_0" index="0" speed="13.89" length="14.40" shape="192.80,201.60 207.20,201.60"/>
    </edge>
    <edge id=":B1_14" function="internal">
        <lane id=":B1_14_0" index="0" speed="8.00" length="14.19" shape="192.80,201.60 196.65,201.05 199.40,199.40 201.05,196.65 201.60,192.80"/>
    </edge>
    <edge id=":B1_15" function="internal">
        <lane id=":B1_15_0" index="0" speed="3.65" length="4.67" shape="192.80,201.60 194.00,200.80 194.40,200.00 194.00,199.20 192.80,198.40"/>
    </edge>
    <edge id=":B2_0" function="internal">
        <lane id=":B2_0_0" index="0" speed="6.51" length="9.03" shape="198.40,392.80 198.05,395.25 197.00,397.00 195.25,398.05 192.80,398.40"/>
    </edge>
    <edge id=":B2_1" function="internal">
        <lane id=":B2_1_0" index="0" speed="8.00" length="14.19" shape="198.40,392.80 198.95,396.65 200.60,399.40 203.35,401.05 207.20,401.60"/>
    </edge>
    <edge id=":B2_2" function="internal">
        <lane id=":B2_2_0" index="0" speed="3.65" length="4.67" shape="198.40,392.80 199.20,394.00 200.00,394.40 200.80,394.00 201.60,392.80"/>
    </edge>
    <edge id=":B2_3" function="internal">
        <lane id=":B2_3_0" index="0" speed="6.51" length="9.03" shape="207.20,398.40 204.75,398.05 203.00,397.00 201.95,395.25 201.60,392.80"/>
    </edge>
    <edge id=":B2_4" function="internal">
        <lane id=":B2_4_0" index="0" speed="13.89" length="14.40" shape="207.20,398.40 192.80,398.40"/>
    </edge>
    <edge id=":B2_5" function="internal">
        <lane id=":B2_5_0" index="0" speed="3.65" length="2.34" shape="207.20,398.40 206.00,399.20 205.60,400.00"/>
    </edge>
    <edge id=":B2_9" function="internal">
        <lane id=":B2_9_0" index="0" speed="3.65" length="2.34" shape="205.60,400.00 206.00,400.80 207.20,401.60"/>
    </edge>
    <edge id=":B2_6" function="internal">
        <lane id=":B2_6_0" index="0" speed="13.89" length="14.40" shape="192.80,401.60 207.20,401.60"/>
    </edge>
    <edge id=":B2_7" function="internal">
        <lane id=":B2_7_0" index="0" speed="8.00" length="5.93" shape="192.80,401.60 196.65,401.05 198.40,400.00"/>
    </edge>
    <edge id=":B2_8" function="internal">
        <lane id=":B2_8_0" index="0" speed="3.65" length="2.34" shape="192.80,401.60 194.00,400.80 194.40,400.00"/>
    </edge>
    <edge id=":B2_10" function="internal">
        <lane id=":B2_10_0" index="0" speed="8.00" length="8.26" shape="198.40,400.00 199.40,399.40 201.05,396.65 201.60,392.80"/>
    </edge>
    <edge id=":B2_11" function="internal">
        <lane id=":B2_11_0" index="0" speed="3.65" length="2.34" shape="194.40,400.00 194.00,399.20 192.80,398.40"/>
    </edge>
    <edge id=":C0_0" function="internal">
        <lane id=":C0_0_0" index="0" speed="6.08" length="7.74" shape="401.60,3.20 401.30,1.10 400.40,-0.40 398.90,-1.30 396.80,-1.60"/>
    </edge>
    <edge id=":C0_1" function="internal">
        <lane id=":C0_1_0" index="0" speed="3.90" length="2.58" shape="396.80,1.60 397.50,1.70 398.00,2.00 398.30,2.50 398.40,3.20"/>
    </edge>
    <edge id=":C1_0" function="internal">
        <lane id=":C1_0_0" index="0" speed="6.51" length="9.03" shape="398.40,192.80 398.05,195.25 397.00,197.00 395.25,198.05 392.80,198.40"/>
    </edge>
    <edge id=":C1_1" function="internal">
        <lane id=":C1_1_0" index="0" speed="13.89" length="14.40" shape="398.40,192.80 398.40,207.20"/>
    </edge>
    <edge id=":C1_2" function="internal">
        <lane id=":C1_2_0" index="0" speed="3.65" length="2.34" shape="398.40,192.80 399.20,194.00 400.00,194.40"/>
    </edge>
    <edge id=":C1_9" function="internal">
        <lane id=":C1_9_0" index="0" speed="3.65" length="2.34" shape="400.00,194.40 400.80,194.00 401.60,192.80"/>
    </edge>
    <edge id=":C1_3" function="internal">
        <lane id=":C1_3_0" index="0" speed="13.89" length="14.40" shape="401.60,207.20 401.60,192.80"/>
    </edge>
    <edge id=":C1_4" function="internal">
        <lane id=":C1_4_0" index="0" speed="8.00" length="5.93" shape="401.60,207.20 401.05,203.35 400.00,201.60"/>
    </edge>
    <edge id=":C1_5" function="internal">
        <lane id=":C1_5_0" index="0" speed="3.65" length="2.34" shape="401.60,207.20 400.80,206.00 400.00,205.60"/>
    </edge>
    <edge id=":C1_10" function="internal">
        <lane id=":C1_10_0" index="0" speed="8.00" length="8.26" shape="400.00,201.60 399.40,200.60 396.65,198.95 392.80,198.40"/>
    </edge>
    <edge id=":C1_11" function="internal">
        <lane id=":C1_11_0" index="0" speed="3.65" length="2.34" shape="400.00,205.60 399.20,206.00 398.40,207.20"/>
    </edge>
    <edge id=":C1_6" function="internal">
        <lane id=":C1_6_0" index="0" speed="6.51" length="9.03" shape="392.80,201.60 395.25,201.95 397.00,203.00 398.05,204.75 398.40,207.20"/>
    </edge>
    <edge id=":C1_7" function="internal">
        <lane id=":C1_7_0" index="0" speed="8.00" length="14.19" shape="392.80,201.60 396.65,201.05 399.40,199.40 401.05,196.65 401.60,192.80"/>
    </edge>
    <edge id=":C1_8" function="internal">
        <lane id=":C1_8_0" index="0" speed="3.65" length="4.67" shape="392.80,201.60 394.00,200.80 394.40,200.00 394.00,199.20 392.80,198.40"/>
    </edge>
    <edge id=":C2_0" function="internal">
        <lane id=":C2_0_0" index="0" speed="3.90" length="2.58" shape="398.40,396.80 398.30,397.50 398.00,398.00 397.50,398.30 396.80,398.40"/>
    </edge>
    <edge id=":C2_1" function="internal">
        <lane id=":C2_1_0" index="0" speed="6.08" length="7.74" shape="396.80,401.60 398.90,401.30 400.40,400.40 401.30,398.90 401.60,396.80"/>
    </edge>

    <edge id="A0A1" from="A0" to="A1" priority="-1">
        <lane id="A0A1_0" index="0" speed="13.89" length="189.60" shape="-1.60,3.20 -1.60,192.80"/>
    </edge>
    <edge id="A0B0" from="A0" to="B0" priority="-1">
        <lane id="A0B0_0" index="0" speed="13.89" length="189.60" shape="3.20,1.60 192.80,1.60"/>
    </edge>
    <edge id="A1A0" from="A1" to="A0" priority="-1">
        <lane id="A1A0_0" index="0" speed="13.89" length="189.60" shape="1.60,192.80 1.60,3.20"/>
    </edge>
    <edge id="A1A2" from="A1" to="A2" priority="-1">
        <lane id="A1A2_0" index="0" speed="13.89" length="189.60" shape="-1.60,207.20 -1.60,396.80"/>
    </edge>
    <edge id="A1B1" from="A1" to="B1" priority="-1">
        <lane id="A1B1_0" index="0" speed="13.89" length="185.60" shape="7.20,201.60 192.80,201.60"/>
    </edge>
    <edge id="A2A1" from="A2" to="A1" priority="-1">
        <lane id="A2A1_0" index="0" speed="13.89" length="189.60" shape="1.60,396.80 1.60,207.20"/>
    </edge>
    <edge id="A2B2" from="A2" to="B2" priority="-1">
        <lane id="A2B2_0" index="0" speed="13.89" length="189.60" shape="3.20,401.60 192.80,401.60"/>
    </edge>
    <edge id="B0A0" from="B0" to="A0" priority="-1">
        <lane id="B0A0_0" index="0" speed="13.89" length="189.60" shape="192.80,-1.60 3.20,-1.60"/>
    </edge>
    <edge id="B0B1" from="B0" to="B1" priority="-1">
        <lane id="B0B1_0" index="0" speed="13.89" length="185.60" shape="198.40,7.20 198.40,192.80"/>
    </edge>
    <edge id="B0C0" from="B0" to="C0" priority="-1">
        <lane id="B0C0_0" index="0" speed="13.89" length="189.60" shape="207.20,1.60 396.80,1.60"/>
    </edge>
    <edge id="B1A1" from="B1" to="A1" priority="-1">
        <lane id="B1A1_0" index="0" speed="13.89" length="185.60" shape="192.80,198.40 7.20,198.40"/>
    </edge>
    <edge id="B1B0" from="B1" to="B0" priority="-1">
        <lane id="B1B0_0" index="0" speed="13.89" length="185.60" shape="201.60,192.80 201.60,7.20"/>
    </edge>
    <edge id="B1B2" from="B1" to="B2" priority="-1">
        <lane id="B1B2_0" index="0" speed="13.89" length="185.60" shape="198.40,207.20 198.40,392.80"/>
    </edge>
    <edge id="B1C1" from="B1" to="C1" priority="-1">
        <lane id="B1C1_0" index="0" speed="13.89" length="185.60" shape="207.20,201.60 392.80,201.60"/>
    </edge>
    <edge id="B2A2" from="B2" to="A2" priority="-1">
        <lane id="B2A2_0" index="0" speed="13.89" length="189.60" shape="192.80,398.40 3.20,398.40"/>
    </edge>
    <edge id="B2B1" from="B2" to="B1" priority="-1">
        <lane id="B2B1_0" index="0" speed="13.89" length="185.60" shape="201.60,392.80 201.60,207.20"/>
    </edge>
    <edge id="B2C2" from="B2" to="C2" priority="-1">
        <lane id="B2C2_0" index="0" speed="13.89" length="189.60" shape="207.20,401.60 396.80,401.60"/>
    </edge>
    <edge id="C0B0" from="C0" to="B0" priority="-1">
        <lane id="C0B0_0" index="0" speed="13.89" length="189.60" shape="396.80,-1.60 207.20,-1.60"/>
    </edge>
    <edge id="C0C1" from="C0" to="C1" priority="-1">
        <lane id="C0C1_0" index="0" speed="13.89" length="189.60" shape="398.40,3.20 398.40,192.80"/>
    </edge>
    <edge id="C1B1" from="C1" to="B1" priority="-1">
        <lane id="C1B1_0" index="0" speed="13.89" length="185.60" shape="392.80,198.40 207.20,198.40"/>
    </edge>
    <edge id="C1C0" from="C1" to="C0" priority="-1">
        <lane id="C1C0_0" index="0" speed="13.89" length="189.60" shape="401.60,192.80 401.60,3.20"/>
    </edge>
    <edge id="C1C2" from="C1" to="C2" priority="-1">
        <lane id="C1C2_0" index="0" speed="13.89" length="189.60" shape="398.40,207.20 398.40,396.80"/>
    </edge>
    <edge id="C2B2" from="C2" to="B2" priority="-1">
        <lane id="C2B2_0" index="0" speed="13.89" length="189.60" shape="396.80,398.40 207.20,398.40"/>
    </edge>
    <edge id="C2C1" from="C2" to="C1" priority="-1">
        <lane id="C2C1_0" index="0" speed="13.89" length="189.60" shape="401.60,396.80 401.60,207.20"/>
    </edge>

    <junction id="A0" type="priority" x="0.00" y="-0.00" incLanes="B0A0_0 A1A0_0" intLanes=":A0_0_0 :A0_1_0" shape="3.20,-3.20 3.20,3.20 -3.20,3.20 -2.49,-0.36 -1.60,-1.60 -0.36,-2.49 1.24,-3.02">
        <request index="0" response="00" foes="00" cont="0"/>
        <request index="1" response="00" foes="00" cont="0"/>
    </junction>
    <junction id="A1" type="priority" x="0.00" y="200.00" incLanes="A0A1_0 B1A1_0 A2A1_0" intLanes=":A1_0_0 :A1_9_0 :A1_10_0 :A1_3_0 :A1_4_0 :A1_5_0 :A1_6_0 :A1_7_0 :A1_11_0" shape="-3.20,192.80 3.20,192.80 3.64,195.02 4.20,195.80 4.98,196.36 5.98,196.69 7.20,196.80 7.20,203.20 4.98,203.64 4.20,204.20 3.64,204.98 3.31,205.98 3.20,207.20 -3.20,207.20">
        <request index="0" response="000000000" foes="100010000" cont="0"/>
        <request index="1" response="011000000" foes="011110000" cont="1"/>
        <request index="2" response="010001000" foes="010001000" cont="1"/>
        <request index="3" response="010000000" foes="010000100" cont="0"/>
        <request index="4" response="010000011" foes="110000011" cont="0"/>
        <request index="5" response="001000010" foes="001000010" cont="0"/>
        <request index="6" response="000000000" foes="000100010" cont="0"/>
        <request index="7" response="000000000" foes="000011110" cont="0"/>
        <request index="8" response="000010001" foes="000010001" cont="1"/>
    </junction>
    <junction id="A2" type="priority" x="0.00" y="400.00" incLanes="A1A2_0 B2A2_0" intLanes=":A2_0_0 :A2_1_0" shape="-3.20,396.80 3.20,396.80 3.20,403.20 -0.36,402.49 -1.60,401.60 -2.49,400.36 -3.02,398.76">
        <request index="0" response="00" foes="00" cont="0"/>
        <request index="1" response="00" foes="00" cont="0"/>
    </junction>
    <junction id="B0" type="priority" x="200.00" y="-0.00" incLanes="C0B0_0 B1B0_0 A0B0_0" intLanes=":B0_0_0 :B0_9_0 :B0_10_0 :B0_3_0 :B0_4_0 :B0_5_0 :B0_6_0 :B0_7_0 :B0_11_0" shape="207.20,-3.20 207.20,3.20 204.98,3.64 204.20,4.20 203.64,4.98 203.31,5.98 203.20,7.20 196.80,7.20 196.36,4.98 195.80,4.20 195.02,3.64 194.02,3.31 192.80,3.20 192.80,-3.20">
        <request index="0" response="000000000" foes="100010000" cont="0"/>
        <request index="1" response="011000000" foes="011110000" cont="1"/>
        <request index="2" response="010001000" foes="010001000" cont="1"/>
        <request index="3" response="010000000" foes="010000100" cont="0"/>
        <request index="4" response="010000011" foes="110000011" cont="0"/>
        <request index="5" response="001000010" foes="001000010" cont="0"/>
        <request index="6" response="000000000" foes="000100010" cont="0"/>
        <request index="7" response="000000000" foes="000011110" cont="0"/>
        <request index="8" response="000010001" foes="000010001" cont="1"/>
    </junction>
    <junction id="B1" type="priority" x="200.00" y="200.00" incLanes="B0B1_0 C1B1_0 B2B1_0 A1B1_0" intLanes=":B1_0_0 :B1_1_0 :B1_16_0 :B1_17_0 :B1_4_0 :B1_5_0 :B1_6_0 :B1_7_0 :B1_8_0 :B1_9_0 :B1_18_0 :B1_19_0 :B1_12_0 :B1_13_0 :B1_14_0 :B1_15_0" shape="196.80,192.80 203.20,192.80 203.64,195.02 204.20,195.80 204.98,196.36 205.98,196.69 207.20,196.80 207.20,203.20 204.98,203.64 204.20,204.20 203.64,204.98 203.31,205.98 203.20,207.20 196.80,207.20 196.36,204.98 195.80,204.20 195.02,203.64 194.02,203.31 192.80,203.20 192.80,196.80 195.02,196.36 195.80,195.80 196.36,195.02 196.69,194.02">
        <request index="0"  response="0000000000000000" foes="1000010000100000" cont="0"/>
        <request index="1"  response="0000000000000000" foes="0111110001100000" cont="0"/>
        <request index="2"  response="0000001100000000" foes="0110001111100000" cont="1"/>
        <request index="3"  response="0100001000010000" foes="0100001000010000" cont="1"/>
        <request index="4"  response="0000001000000000" foes="0100001000001000" cont="0"/>
        <request index="5"  response="0000011000000111" foes="1100011000000111" cont="0"/>
        <request index="6"  response="0011011000000110" foes="0011111000000110" cont="0"/>
        <request index="7"  response="0010000100000100" foes="0010000100000100" cont="0"/>
        <request index="8"  response="0000000000000000" foes="0010000010000100" cont="0"/>
        <request index="9"  response="0000000000000000" foes="0110000001111100" cont="0"/>
        <request index="10" response="0000000000000011" foes="1110000001100011" cont="1"/>
        <request index="11" response="0001000001000010" foes="0001000001000010" cont="1"/>
        <request index="12" response="0000000000000010" foes="0000100001000010" cont="0"/>
        <request index="13" response="0000011100000110" foes="0000011111000110" cont="0"/>
        <request index="14" response="0000011000110110" foes="0000011000111110" cont="0"/>
        <request index="15" response="0000010000100001" foes="0000010000100001" cont="0"/>
    </junction>
    <junction id="B2" type="priority" x="200.00" y="400.00" incLanes="B1B2_0 C2B2_0 A2B2_0" intLanes=":B2_0_0 :B2_1_0 :B2_2_0 :B2_3_0 :B2_4_0 :B2_9_0 :B2_6_0 :B2_10_0 :B2_11_0" shape="196.80,392.80 203.20,392.80 203.64,395.02 204.20,395.80 204.98,396.36 205.98,396.69 207.20,396.80 207.20,403.20 192.80,403.20 192.80,396.80 195.02,396.36 195.80,395.80 196.36,395.02 196.69,394.02">
        <request index="0" response="000010000" foes="100010000" cont="0"/>
        <request index="1" response="011010000" foes="011110000" cont="0"/>
        <request index="2" response="010001000" foes="010001000" cont="0"/>
        <request index="3" response="000000000" foes="010000100" cont="0"/>
        <request index="4" response="000000000" foes="110000011" cont="0"/>
        <request index="5" response="001000010" foes="001000010" cont="1"/>
        <request index="6" response="000000000" foes="000100010" cont="0"/>
        <request index="7" response="000011000" foes="000011110" cont="1"/>
        <request index="8" response="000010001" foes="000010001" cont="1"/>
    </junction>
    <junction id="C0" type="priority" x="400.00" y="-0.00" incLanes="C1C0_0 B0C0_0" intLanes=":C0_0_0 :C0_1_0" shape="403.20,3.20 396.80,3.20 396.80,-3.20 400.36,-2.49 401.60,-1.60 402.49,-0.36 403.02,1.24">
        <request index="0" response="00" foes="00" cont="0"/>
        <request index="1" response="00" foes="00" cont="0"/>
    </junction>
    <junction id="C1" type="priority" x="400.00" y="200.00" incLanes="C0C1_0 C2C1_0 B1C1_0" intLanes=":C1_0_0 :C1_1_0 :C1_9_0 :C1_3_0 :C1_10_0 :C1_11_0 :C1_6_0 :C1_7_0 :C1_8_0" shape="396.80,192.80 403.20,192.80 403.20,207.20 396.80,207.20 396.36,204.98 395.80,204.20 395.02,203.64 394.02,203.31 392.80,203.20 392.80,196.80 395.02,196.36 395.80,195.80 396.36,195.02 396.69,194.02">
        <request index="0" response="000000000" foes="100010000" cont="0"/>
        <request index="1" response="000000000" foes="011110000" cont="0"/>
        <request index="2" response="010001000" foes="010001000" cont="1"/>
        <request index="3" response="000000000" foes="010000100" cont="0"/>
        <request index="4" response="000000011" foes="110000011" cont="1"/>
        <request index="5" response="001000010" foes="001000010" cont="1"/>
        <request index="6" response="000000010" foes="000100010" cont="0"/>
        <request index="7" response="000011010" foes="000011110" cont="0"/>
        <request index="8" response="000010001" foes="000010001" cont="0"/>
    </junction>
    <junction id="C2" type="priority" x="400.00" y="400.00" incLanes="C1C2_0 B2C2_0" intLanes=":C2_0_0 :C2_1_0" shape="396.80,396.80 403.20,396.80 402.49,400.36 401.60,401.60 400.36,402.49 398.76,403.02 396.80,403.20">
        <request index="0" response="00" foes="00" cont="0"/>
        <request index="1" response="00" foes="00" cont="0"/>
    </junction>

    <junction id=":A1_9_0" type="internal" x="-0.00" y="198.40" incLanes=":A1_1_0 A2A1_0" intLanes=":A1_4_0 :A1_5_0 :A1_6_0 :A1_7_0"/>
    <junction id=":A1_10_0" type="internal" x="0.00" y="194.40" incLanes=":A1_2_0 A2A1_0 B1A1_0" intLanes=":A1_3_0 :A1_7_0"/>
    <junction id=":A1_11_0" type="internal" x="0.00" y="205.60" incLanes=":A1_8_0 A0A1_0 B1A1_0" intLanes=":A1_0_0 :A1_4_0"/>
    <junction id=":B0_9_0" type="internal" x="201.60" y="-0.00" incLanes=":B0_1_0 A0B0_0" intLanes=":B0_4_0 :B0_5_0 :B0_6_0 :B0_7_0"/>
    <junction id=":B0_10_0" type="internal" x="205.60" y="-0.00" incLanes=":B0_2_0 A0B0_0 B1B0_0" intLanes=":B0_3_0 :B0_7_0"/>
    <junction id=":B0_11_0" type="internal" x="194.40" y="-0.00" incLanes=":B0_8_0 B1B0_0 C0B0_0" intLanes=":B0_0_0 :B0_4_0"/>
    <junction id=":B1_16_0" type="internal" x="200.00" y="198.40" incLanes=":B1_2_0 B2B1_0" intLanes=":B1_5_0 :B1_6_0 :B1_7_0 :B1_8_0 :B1_9_0 :B1_13_0 :B1_14_0"/>
    <junction id=":B1_17_0" type="internal" x="200.00" y="194.40" incLanes=":B1_3_0 A1B1_0 B2B1_0 C1B1_0" intLanes=":B1_4_0 :B1_9_0 :B1_14_0"/>
    <junction id=":B1_18_0" type="internal" x="200.00" y="201.60" incLanes=":B1_10_0 B0B1_0" intLanes=":B1_0_0 :B1_1_0 :B1_5_0 :B1_6_0 :B1_13_0 :B1_14_0 :B1_15_0"/>
    <junction id=":B1_19_0" type="internal" x="200.00" y="205.60" incLanes=":B1_11_0 A1B1_0 B0B1_0 C1B1_0" intLanes=":B1_1_0 :B1_6_0 :B1_12_0"/>
    <junction id=":B2_9_0" type="internal" x="205.60" y="400.00" incLanes=":B2_5_0 A2B2_0 B1B2_0" intLanes=":B2_1_0 :B2_6_0"/>
    <junction id=":B2_10_0" type="internal" x="198.40" y="400.00" incLanes=":B2_7_0 C2B2_0" intLanes=":B2_1_0 :B2_2_0 :B2_3_0 :B2_4_0"/>
    <junction id=":B2_11_0" type="internal" x="194.40" y="400.00" incLanes=":B2_8_0 B1B2_0 C2B2_0" intLanes=":B2_0_0 :B2_4_0"/>
    <junction id=":C1_9_0" type="internal" x="400.00" y="194.40" incLanes=":C1_2_0 B1C1_0 C2C1_0" intLanes=":C1_3_0 :C1_7_0"/>
    <junction id=":C1_10_0" type="internal" x="400.00" y="201.60" incLanes=":C1_4_0 C0C1_0" intLanes=":C1_0_0 :C1_1_0 :C1_7_0 :C1_8_0"/>
    <junction id=":C1_11_0" type="internal" x="400.00" y="205.60" incLanes=":C1_5_0 B1C1_0 C0C1_0" intLanes=":C1_1_0 :C1_6_0"/>

    <connection from="A0A1" to="A1A2" fromLane="0" toLane="0" keepClear="0" via=":A1_0_0" dir="s" state="M"/>
    <connection from="A0A1" to="A1B1" fromLane="0" toLane="0" keepClear="0" via=":A1_1_0" dir="r" state="m"/>
    <connection from="A0A1" to="A1A0" fromLane="0" toLane="0" keepClear="0" via=":A1_2_0" dir="T" state="m"/>
    <connection from="A0B0" to="B0B1" fromLane="0" toLane="0" keepClear="0" via=":B0_6_0" dir="l" state="M"/>
    <connection from="A0B0" to="B0C0" fromLane="0" toLane="0" keepClear="0" via=":B0_7_0" dir="s" state="M"/>
    <connection from="A0B0" to="B0A0" fromLane="0" toLane="0" keepClear="0" via=":B0_8_0" dir="T" state="m"/>
    <connection from="A1A0" to="A0B0" fromLane="0" toLane="0" keepClear="0" via=":A0_1_0" dir="l" state="M"/>
    <connection from="A1A2" to="A2B2" fromLane="0" toLane="0" keepClear="0" via=":A2_0_0" dir="r" state="M"/>
    <connection from="A1B1" to="B1B2" fromLane="0" toLane="0" keepClear="0" via=":B1_12_0" dir="l" state="m"/>
    <connection from="A1B1" to="B1C1" fromLane="0" toLane="0" keepClear="0" via=":B1_13_0" dir="s" state="m"/>
    <connection from="A1B1" to="B1B0" fromLane="0" toLane="0" keepClear="0" via=":B1_14_0" dir="r" state="m"/>
    <connection from="A1B1" to="B1A1" fromLane="0" toLane="0" keepClear="0" via=":B1_15_0" dir="T" state="m"/>